Version 4
SHEET 1 1428 680
WIRE 464 208 416 208
WIRE 768 224 528 224
WIRE 992 224 768 224
WIRE 1360 224 1232 224
WIRE 96 240 64 240
WIRE 288 240 256 240
WIRE 368 240 288 240
WIRE 464 240 368 240
WIRE 768 256 768 224
WIRE 64 288 64 240
WIRE 288 288 288 240
WIRE 416 368 416 208
WIRE 768 368 768 336
WIRE 768 368 416 368
WIRE 368 384 368 240
WIRE 768 416 768 368
WIRE 160 448 80 448
WIRE 288 448 288 432
WIRE 288 448 240 448
WIRE 320 448 288 448
WIRE 80 464 80 448
WIRE 368 496 368 480
WIRE 560 496 368 496
WIRE 768 496 560 496
FLAG 224 144 0
FLAG 80 144 0
FLAG 560 496 0
FLAG 224 64 VDD
FLAG 496 192 VDD
FLAG 496 256 VCC
FLAG 80 64 VCC
FLAG 64 288 0
FLAG 80 544 0
FLAG 1360 224 Vout
SYMBOL njf 320 384 R0
SYMATTR InstName J1
SYMBOL OpAmps/MAX40079 496 160 R0
SYMATTR InstName U1
SYMBOL Res 272 224 R90
WINDOW 0 0 56 VBottom 2
WINDOW 3 32 56 VTop 2
SYMATTR InstName R1
SYMATTR Value 22k
SYMBOL Res 256 432 R90
WINDOW 0 0 56 VBottom 2
WINDOW 3 32 56 VTop 2
SYMATTR InstName R2
SYMATTR Value 1Meg
SYMBOL Res 752 400 R0
SYMATTR InstName R3
SYMATTR Value 10k
SYMBOL Res 752 240 R0
SYMATTR InstName R4
SYMATTR Value 100k
SYMBOL Voltage 80 48 R0
SYMATTR InstName V1
SYMATTR Value -2.5V
SYMBOL Voltage 224 48 R0
SYMATTR InstName V2
SYMATTR Value 5V
SYMBOL Voltage 80 448 R0
SYMATTR InstName V3
SYMATTR Value 0v
SYMBOL Voltage 192 240 R90
WINDOW 0 -32 56 VBottom 2
WINDOW 3 32 56 VTop 2
SYMATTR InstName V4
SYMATTR Value SINE(0, 1, 457k)
SYMBOL Res 272 336 R0
SYMATTR InstName R6
SYMATTR Value 1Meg
SYMBOL Cap 272 288 R0
SYMATTR InstName C1
SYMATTR Value 33n
SYMBOL SpecialFunctions/2ndOrdBandpass 1072 208 R0
SYMATTR InstName U2
TEXT 480 608 Left 2 !.tran 25u
