Version 4
SHEET 1 1076 696
WIRE -576 0 -816 0
WIRE -544 0 -576 0
WIRE -432 0 -464 0
WIRE -272 0 -432 0
WIRE -976 48 -1024 48
WIRE -816 48 -816 0
WIRE -816 48 -896 48
WIRE -1392 64 -1456 64
WIRE -1088 64 -1152 64
WIRE -1088 96 -1088 64
WIRE -1024 96 -1024 48
WIRE -1024 96 -1088 96
WIRE -576 96 -576 0
WIRE -544 96 -576 96
WIRE -432 112 -432 0
WIRE -432 112 -480 112
WIRE -544 128 -576 128
WIRE -1024 144 -1024 96
WIRE -976 144 -1024 144
WIRE -816 144 -816 48
WIRE -816 144 -896 144
WIRE -1600 160 -1840 160
WIRE -1568 160 -1600 160
WIRE -1456 160 -1456 64
WIRE -1456 160 -1488 160
WIRE -816 192 -816 144
WIRE -2000 208 -2048 208
WIRE -1840 208 -1840 160
WIRE -1840 208 -1920 208
WIRE -576 208 -576 128
WIRE -528 208 -576 208
WIRE -384 208 -448 208
WIRE -384 240 -384 208
WIRE -2048 256 -2048 208
WIRE -2048 256 -2160 256
WIRE -1600 256 -1600 160
WIRE -1568 256 -1600 256
WIRE -864 256 -960 256
WIRE -576 256 -576 208
WIRE -2160 272 -2160 256
WIRE -1456 272 -1456 160
WIRE -1456 272 -1504 272
WIRE -1568 288 -1600 288
WIRE -960 288 -960 256
WIRE -432 288 -528 288
WIRE -2048 304 -2048 256
WIRE -2000 304 -2048 304
WIRE -1840 304 -1840 208
WIRE -1840 304 -1920 304
WIRE -1840 352 -1840 304
WIRE -1600 368 -1600 288
WIRE -1552 368 -1600 368
WIRE -1408 368 -1472 368
WIRE -1408 400 -1408 368
WIRE -960 400 -960 368
WIRE -816 400 -816 288
WIRE -816 400 -960 400
WIRE -640 400 -816 400
WIRE -576 400 -576 352
WIRE -576 400 -640 400
WIRE -432 400 -432 288
WIRE -432 400 -576 400
WIRE -1888 416 -1984 416
WIRE -1600 416 -1600 368
WIRE -640 432 -640 400
WIRE -1984 448 -1984 416
WIRE -1456 448 -1552 448
WIRE -1984 560 -1984 528
WIRE -1840 560 -1840 448
WIRE -1840 560 -1984 560
WIRE -1664 560 -1840 560
WIRE -1600 560 -1600 512
WIRE -1600 560 -1664 560
WIRE -1456 560 -1456 448
WIRE -1456 560 -1600 560
WIRE -1664 592 -1664 560
FLAG -1664 592 0
FLAG -1408 400 0
FLAG -1280 464 0
FLAG -1280 304 0
FLAG -1536 304 VCC
FLAG -1536 240 VDD
FLAG -2160 352 0
FLAG -1280 224 VDD
FLAG -1280 384 VCC
FLAG -640 432 0
FLAG -384 240 0
FLAG -512 144 VCC
FLAG -512 80 VDD
FLAG -272 0 Vout
SYMBOL pjf -1888 352 R0
SYMATTR InstName J1
SYMBOL pjf -1552 512 R180
SYMATTR InstName J2
SYMBOL Res -1904 192 R90
WINDOW 0 0 56 VBottom 2
WINDOW 3 32 56 VTop 2
SYMATTR InstName R1
SYMATTR Value 10K
SYMBOL Res -1904 288 R90
WINDOW 0 0 56 VBottom 2
WINDOW 3 32 56 VTop 2
SYMATTR InstName R2
SYMATTR Value 10K
SYMBOL Res -1456 352 R90
WINDOW 0 0 56 VBottom 2
WINDOW 3 32 56 VTop 2
SYMATTR InstName R3
SYMATTR Value 10K
SYMBOL Res -1472 144 R90
WINDOW 0 0 56 VBottom 2
WINDOW 3 32 56 VTop 2
SYMATTR InstName R4
SYMATTR Value 10K
SYMBOL Voltage -1280 208 R0
SYMATTR InstName VDD
SYMATTR Value 5V
SYMBOL Voltage -1280 368 R0
SYMATTR InstName VCC
SYMATTR Value -2.5V
SYMBOL Voltage -2160 256 R0
SYMATTR InstName V1
SYMATTR Value SINE(0 .1 457K)
SYMBOL Voltage -1984 432 R0
SYMATTR InstName V2
SYMATTR Value .1V
SYMBOL OpAmps/MAX40079 -1536 208 R0
SYMATTR InstName U1
SYMBOL SpecialFunctions/2ndOrdBandpass -1312 48 R0
SYMATTR InstName U2
SYMATTR Value f0=457k Q=1 H=.9
SYMBOL pjf -864 192 R0
SYMATTR InstName J3
SYMBOL pjf -528 352 R180
SYMATTR InstName J4
SYMBOL Res -880 32 R90
WINDOW 0 0 56 VBottom 2
WINDOW 3 32 56 VTop 2
SYMATTR InstName R5
SYMATTR Value 10K
SYMBOL Res -880 128 R90
WINDOW 0 0 56 VBottom 2
WINDOW 3 32 56 VTop 2
SYMATTR InstName R6
SYMATTR Value 10K
SYMBOL Res -432 192 R90
WINDOW 0 0 56 VBottom 2
WINDOW 3 32 56 VTop 2
SYMATTR InstName R7
SYMATTR Value 10K
SYMBOL Res -448 -16 R90
WINDOW 0 0 56 VBottom 2
WINDOW 3 32 56 VTop 2
SYMATTR InstName R8
SYMATTR Value 10K
SYMBOL Voltage -960 272 R0
SYMATTR InstName V3
SYMATTR Value .1
SYMBOL OpAmps/MAX40079 -512 48 R0
SYMATTR InstName U3
TEXT -1624 680 Left 2 !;.ac dec 1000 10k 1Meg
TEXT -1624 648 Left 2 !.tran 25u
