Version 4
SHEET 1 3392 680
WIRE 752 -144 672 -144
WIRE 672 -112 672 -144
WIRE 752 -112 752 -144
WIRE 2640 -96 2560 -96
WIRE 2560 -64 2560 -96
WIRE 2640 -64 2640 -96
WIRE 672 0 672 -48
WIRE 2560 48 2560 0
WIRE 672 112 672 80
WIRE 672 112 176 112
WIRE 672 128 672 112
WIRE 2560 160 2560 128
WIRE 2560 160 2064 160
WIRE 2560 176 2560 160
WIRE 384 192 384 64
WIRE 384 192 336 192
WIRE -320 208 -384 208
WIRE -160 208 -160 160
WIRE -160 208 -256 208
WIRE -80 208 -160 208
WIRE 272 208 0 208
WIRE 448 224 336 224
WIRE -160 240 -160 208
WIRE 176 240 176 112
WIRE 272 240 176 240
WIRE 2272 240 2272 112
WIRE 2272 240 2224 240
WIRE -384 256 -384 208
WIRE 672 256 672 208
WIRE 672 256 336 256
WIRE 800 256 672 256
WIRE 992 256 864 256
WIRE 1008 256 992 256
WIRE 1568 256 1232 256
WIRE 1728 256 1728 208
WIRE 1728 256 1632 256
WIRE 1808 256 1728 256
WIRE 2160 256 1888 256
WIRE 2336 272 2224 272
WIRE 1728 288 1728 256
WIRE 2064 288 2064 160
WIRE 2160 288 2064 288
WIRE 2560 304 2560 256
WIRE 2560 304 2224 304
WIRE 2736 304 2560 304
WIRE 3312 304 2800 304
WIRE 448 336 448 224
WIRE -384 368 -384 336
WIRE 3312 368 3312 304
WIRE 2336 384 2336 272
WIRE 3312 528 3312 448
FLAG 384 64 VDD
FLAG 448 336 VCC
FLAG 752 -112 0
FLAG -160 80 VDD
FLAG -160 320 VCC
FLAG -384 368 0
FLAG 1552 -112 VDD
FLAG 2272 112 VDD
FLAG 1664 -112 VCC
FLAG 1664 -32 0
FLAG 1552 -32 0
FLAG 2336 384 VCC
FLAG 2640 -64 0
FLAG 1728 128 VDD
FLAG 1728 368 VCC
FLAG 3312 528 0
SYMBOL AutoGenerated/TL084 304 224 R0
SYMATTR InstName U1
SYMBOL Res 656 112 R0
SYMATTR InstName R1
SYMATTR Value 2.2k
SYMBOL Res 656 -16 R0
SYMATTR InstName R2
SYMATTR Value 47
SYMBOL Cap 656 -112 R0
SYMATTR InstName C1
SYMATTR Value 1µ
SYMBOL Res 16 192 R90
WINDOW 0 0 56 VBottom 2
WINDOW 3 32 56 VTop 2
SYMATTR InstName R3
SYMATTR Value 100
SYMBOL Res -176 64 R0
SYMATTR InstName R4
SYMATTR Value 10k
SYMBOL Res -176 224 R0
SYMATTR InstName R5
SYMATTR Value 10k
SYMBOL Cap -256 192 R90
WINDOW 0 0 32 VBottom 2
WINDOW 3 32 32 VTop 2
SYMATTR InstName C2
SYMATTR Value 1µ
SYMBOL Voltage -384 240 R0
SYMATTR InstName V3
SYMATTR Value SINE(0 .1 457K)
SYMBOL Cap 864 240 R90
WINDOW 0 0 32 VBottom 2
WINDOW 3 32 32 VTop 2
SYMATTR InstName C3
SYMATTR Value 10µ
SYMBOL SpecialFunctions/2ndOrdBandpass 1072 240 R0
SYMATTR InstName U2
SYMATTR Value f0=457k Q=1 H=.4
SYMBOL AutoGenerated/TL084 2192 272 R0
SYMATTR InstName U3
SYMBOL Voltage 1552 -128 R0
SYMATTR InstName V4
SYMATTR Value 5V
SYMBOL Voltage 1664 -128 R0
SYMATTR InstName V5
SYMATTR Value -2.5V
SYMBOL Res 2544 160 R0
SYMATTR InstName R7
SYMATTR Value 2.2k
SYMBOL Res 2544 32 R0
SYMATTR InstName R8
SYMATTR Value 47
SYMBOL Cap 2544 -64 R0
SYMATTR InstName C4
SYMATTR Value 1µ
SYMBOL Res 1904 240 R90
WINDOW 0 0 56 VBottom 2
WINDOW 3 32 56 VTop 2
SYMATTR InstName R9
SYMATTR Value 100
SYMBOL Res 1712 112 R0
SYMATTR InstName R10
SYMATTR Value 10k
SYMBOL Res 1712 272 R0
SYMATTR InstName R11
SYMATTR Value 10k
SYMBOL Cap 1632 240 R90
WINDOW 0 0 32 VBottom 2
WINDOW 3 32 32 VTop 2
SYMATTR InstName C5
SYMATTR Value 1µ
SYMBOL Cap 2800 288 R90
WINDOW 0 0 32 VBottom 2
WINDOW 3 32 32 VTop 2
SYMATTR InstName C6
SYMATTR Value 10µ
SYMBOL Res 3296 352 R0
SYMATTR InstName R12
SYMATTR Value 100k
TEXT 80 544 Left 2 !.tran 25u
TEXT 88 584 Left 2 !;.ac dec 1000 1k 1Meg
